*HEADING
Voxel grid to C3D8R (SI units: m, Pa, kg)
*NODE
1, 0, -0.0198437497, -0.0396874994
2, 0.00396875013, -0.0198437497, -0.0396874994
3, 0.00793750025, -0.0198437497, -0.0396874994
4, 0.0119062504, -0.0198437497, -0.0396874994
5, 0.0158750005, -0.0198437497, -0.0396874994
6, 0.0198437506, -0.0198437497, -0.0396874994
7, 0.0238125008, -0.0198437497, -0.0396874994
8, 0.0277812509, -0.0198437497, -0.0396874994
9, 0.031750001, -0.0198437497, -0.0396874994
10, 0.0357187511, -0.0198437497, -0.0396874994
11, 0.0396875013, -0.0198437497, -0.0396874994
12, 0.0436562514, -0.0198437497, -0.0396874994
13, 0.0476250015, -0.0198437497, -0.0396874994
14, 0.0515937516, -0.0198437497, -0.0396874994
15, 0.0555625018, -0.0198437497, -0.0396874994
16, 0.0595312519, -0.0198437497, -0.0396874994
17, 0.063500002, -0.0198437497, -0.0396874994
18, 0.0674687522, -0.0198437497, -0.0396874994
19, 0.0714375023, -0.0198437497, -0.0396874994
20, 0.0754062524, -0.0198437497, -0.0396874994
** ... 18700 like lines cut

*ELEMENT, TYPE=C3D8R, ELSET=ALL
1, 1,2,132,131,1561,1562,1692,1691
2, 1561,1562,1692,1691,3121,3122,3252,3251
3, 3121,3122,3252,3251,4681,4682,4812,4811
4, 4681,4682,4812,4811,6241,6242,6372,6371
5, 6241,6242,6372,6371,7801,7802,7932,7931
6, 7801,7802,7932,7931,9361,9362,9492,9491
7, 9361,9362,9492,9491,10921,10922,11052,11051
8, 10921,10922,11052,11051,12481,12482,12612,12611
9, 12481,12482,12612,12611,14041,14042,14172,14171
10, 14041,14042,14172,14171,15601,15602,15732,15731
11, 15601,15602,15732,15731,17161,17162,17292,17291
12, 131,132,262,261,1691,1692,1822,1821
13, 1691,1692,1822,1821,3251,3252,3382,3381
14, 3251,3252,3382,3381,4811,4812,4942,4941
15, 4811,4812,4942,4941,6371,6372,6502,6501
16, 6371,6372,6502,6501,7931,7932,8062,8061
17, 7931,7932,8062,8061,9491,9492,9622,9621
18, 9491,9492,9622,9621,11051,11052,11182,11181
19, 11051,11052,11182,11181,12611,12612,12742,12741
20, 12611,12612,12742,12741,14171,14172,14302,14301
** ... 15514 like lines cut

*ELSET, ELSET=PART_003_R247G182B210A255
1,12,23,34,45,56,67,78,89,100,111,122,123,133,134,144
145,155,156,166,167,177,178,188,189,199,200,210,211,221,222,232
233,243,254,255,265,266,267,276,277,278,287,288,289,298,299,300
309,310,311,320,321,322,331,332,333,342,343,353,364,375,376,386
387,388,397,398,399,400,408,409,410,411,419,420,421,422,430,431
432,433,441,442,443,444,452,453,454,463,464,474,485,496,497,507
508,509,518,519,520,521,529,530,531,532,533,540,541,542,543,544
551,552,553,554,555,562,563,564,565,573,574,575,584,585,595,606
617,618,628,629,630,639,640,641,642,650,651,652,653,654,661,662
663,664,665,666,672,673,674,675,676,683,684,685,686,694,695,696
705,706,716,727,738,739,749,750,751,760,761,762,763,771,772,773
774,775,782,783,784,785,786,787,793,794,795,796,797,804,805,806
807,815,816,817,826,827,837,848,859,860,870,871,872,881,882,883
884,892,893,894,895,896,903,904,905,906,907,908,914,915,916,917
918,925,926,927,928,936,937,938,947,948,958,969,980,981,991,992
993,1002,1003,1004,1005,1013,1014,1015,1016,1017,1024,1025,1026,1027,1028,1029
1035,1036,1037,1038,1039,1046,1047,1048,1049,1057,1058,1059,1068,1069,1079,1090
1101,1102,1112,1113,1114,1123,1124,1125,1126,1134,1135,1136,1137,1138,1145,1146
1147,1148,1149,1150,1156,1157,1158,1159,1160,1167,1168,1169,1170,1178,1179,1180
1189,1190,1200,1211,1222,1223,1233,1234,1235,1244,1245,1246,1247,1255,1256,1257
** ... 240 like lines cut

*ELSET, ELSET=PART_000_R31G119B180A255
2,3,4,5,6,7,8,9,10,124,125,126,127,128,129,130
131,132,135,136,137,138,139,140,141,142,244,245,246,247,248,249
250,251,252,253,256,257,258,259,260,261,262,263,268,269,270,271
272,273,365,366,367,368,369,370,371,372,373,374,377,378,379,380
381,382,383,384,389,390,391,392,393,394,401,402,403,404,486,487
488,489,490,491,492,493,494,495,498,499,500,501,502,503,504,505
510,511,512,513,514,515,522,523,524,525,534,535,607,608,609,610
611,612,613,614,615,616,619,620,621,622,623,624,625,626,631,632
633,634,635,636,643,644,645,646,655,656,728,729,730,731,732,733
734,735,736,737,740,741,742,743,744,745,746,747,752,753,754,755
756,757,764,765,766,767,776,777,849,850,851,852,853,854,855,856
857,858,861,862,863,864,865,866,867,868,873,874,875,876,877,878
885,886,887,888,897,898,970,971,972,973,974,975,976,977,978,979
982,983,984,985,986,987,988,989,994,995,996,997,998,999,1006,1007
1008,1009,1018,1019,1091,1092,1093,1094,1095,1096,1097,1098,1099,1100,1103,1104
1105,1106,1107,1108,1109,1110,1115,1116,1117,1118,1119,1120,1127,1128,1129,1130
1139,1140,1212,1213,1214,1215,1216,1217,1218,1219,1220,1221,1224,1225,1226,1227
1228,1229,1230,1231,1236,1237,1238,1239,1240,1241,1248,1249,1250,1251,1260,1261
1333,1334,1335,1336,1337,1338,1339,1340,1341,1342,1345,1346,1347,1348,1349,1350
1351,1352,1357,1358,1359,1360,1361,1362,1369,1370,1371,1372,1381,1382,1454,1455
** ... 272 like lines cut

*ELSET, ELSET=PART_001_R158G218B229A255
11,13,14,15,16,17,18,19,20,21,22,24,25,26,27,28
29,30,31,32,33,35,36,37,38,39,40,41,42,43,44,46
47,48,49,50,51,52,53,54,57,58,59,60,61,62,63,64
65,68,69,70,71,72,73,74,75,76,79,80,81,82,83,84
85,86,87,90,91,92,93,94,95,96,97,98,101,102,103,104
105,106,107,108,109,112,113,114,115,116,117,118,119,120,146,147
148,149,150,151,152,153,157,158,159,160,161,162,163,164,168,169
170,171,172,173,174,179,180,181,182,183,184,185,186,190,191,192
193,194,195,196,201,202,203,204,205,206,207,212,213,214,215,216
217,218,219,223,224,225,226,227,228,229,230,234,235,236,237,238
239,240,241,242,279,280,281,282,283,284,290,291,292,293,294,301
302,303,304,305,306,312,313,314,315,316,323,324,325,326,327,334
335,336,337,338,339,344,345,346,347,348,349,350,351,354,355,356
357,358,359,360,361,362,363,412,413,414,423,424,425,434,435,436
445,446,447,448,455,456,457,458,459,460,465,466,467,468,469,470
471,472,475,476,477,478,479,480,481,482,483,484,545,556,557,566
567,568,569,576,577,578,579,580,581,586,587,588,589,590,591,592
593,596,597,598,599,600,601,602,603,604,605,677,678,687,688,689
690,697,698,699,700,701,702,707,708,709,710,711,712,713,714,717
718,719,720,721,722,723,724,725,726,798,799,808,809,810,811,818
** ... 221 like lines cut

*ELSET, ELSET=PART_002_R214G39B40A255
55,66,77,88,99,110,121,143,154,165,175,176,187,197,198,208
209,220,231,264,274,275,285,286,295,296,297,307,308,317,318,319
328,329,330,340,341,352,385,395,396,405,406,407,415,416,417,418
426,427,428,429,437,438,439,440,449,450,451,461,462,473,506,516
517,526,527,528,536,537,538,539,546,547,548,549,550,558,559,560
561,570,571,572,582,583,594,627,637,638,647,648,649,657,658,659
660,667,668,669,670,671,679,680,681,682,691,692,693,703,704,715
748,758,759,768,769,770,778,779,780,781,788,789,790,791,792,800
801,802,803,812,813,814,824,825,836,869,879,880,889,890,891,899
900,901,902,909,910,911,912,913,921,922,923,924,933,934,935,945
946,957,990,1000,1001,1010,1011,1012,1020,1021,1022,1023,1030,1031,1032,1033
1034,1042,1043,1044,1045,1054,1055,1056,1066,1067,1078,1111,1121,1122,1131,1132
1133,1141,1142,1143,1144,1151,1152,1153,1154,1155,1163,1164,1165,1166,1175,1176
1177,1187,1188,1199,1232,1242,1243,1252,1253,1254,1262,1263,1264,1265,1272,1273
1274,1275,1276,1284,1285,1286,1287,1296,1297,1298,1308,1309,1320,1353,1363,1364
1373,1374,1375,1383,1384,1385,1386,1393,1394,1395,1396,1397,1405,1406,1407,1408
1417,1418,1419,1429,1430,1441,1474,1484,1485,1494,1495,1496,1504,1505,1506,1507
1514,1515,1516,1517,1518,1526,1527,1528,1529,1538,1539,1540,1550,1551,1562,1595
1605,1606,1615,1616,1617,1625,1626,1627,1628,1635,1636,1637,1638,1639,1647,1648
1649,1650,1659,1660,1661,1671,1672,1683,1716,1726,1727,1736,1737,1738,1746,1747
** ... 160 like lines cut

*MATERIAL, NAME=Mat1
*ELASTIC
7.0e10, 0.33
*DENSITY
2700.

*SOLID SECTION, ELSET=ALL, MATERIAL=Mat1

*NSET, NSET=XMIN
1,131,261,391,521,651,781,911,1041,1171,1301,1431,1561,1691,1821,1951
2081,2211,2341,2471,2601,2731,2861,2991,3121,3251,3381,3511,3641,3771,3901,4031
4161,4291,4421,4551,4681,4811,4941,5071,5201,5331,5461,5591,5721,5851,5981,6111
6241,6371,6501,6631,6761,6891,7021,7151,7281,7411,7541,7671,7801,7931,8061,8191
8321,8451,8581,8711,8841,8971,9101,9231,9361,9491,9621,9751,9881,10011,10141,10271
10401,10531,10661,10791,10921,11051,11181,11311,11441,11571,11701,11831,11961,12091,12221,12351
12481,12611,12741,12871,13001,13131,13261,13391,13521,13651,13781,13911,14041,14171,14301,14431
14561,14691,14821,14951,15081,15211,15341,15471,15601,15731,15861,15991,16121,16251,16381,16511
16641,16771,16901,17031,17161,17291,17421,17551,17681,17811,17941,18071,18201,18331,18461,18591

*SURFACE, NAME=FACE_XMAX, TYPE=ELEMENT
15458, S5
15459, S5
15460, S5
15461, S5
15462, S5
15463, S5
15464, S5
15465, S5
15466, S5
15467, S5
15468, S5
15469, S5
15470, S5
15471, S5
15472, S5
15473, S5
15474, S5
15475, S5
15476, S5
15477, S5
** ... 57 like lines cut

*STEP
*STATIC
*BOUNDARY
XMIN, 1, 3

*DLOAD
FACE_XMAX, P, -1.0e6

*NODE PRINT, NSET=ALL
U
*EL PRINT, ELSET=ALL
S, E
*END STEP
